k23/sourcebus_22000.trafo_75628932_75628932/LineCodes.dss
New Linecode.1P_Code5 units=km nphases=1 R1=0.7839 R0=0.7839 X1=0.0915 X0=0.0915 BaseFreq=50
New Linecode.1P_Code6 units=km nphases=1 R1=1.247 R0=1.247 X1=0.2494 X0=0.2494 BaseFreq=50
New Linecode.1P_OH_Code8 units=km nphases=1 R1=0.5875 R0=0.5875 X1=0.3745 X0=0.3745 BaseFreq=50

New Linecode.2P_Code9 units=km nphases=2 R1=1.247 R0=(4 1.247 *) X1=0.2494 X0=(4 0.2494 *) BaseFreq=50
New Linecode.3P_Code0 units=km nphases=3 R1=0.1 R0=(4 0.1 *) X1=0.061 X0=(4 0.061 *) BaseFreq=50
New Linecode.3P_Code3 units=km nphases=3 R1=1.29 R0=(4 1.29 *) X1=0.258 X0=(4 0.258 *) BaseFreq=50
New Linecode.3P_Code4 units=km nphases=3 R1=0.32 R0=(4 0.32 *) X1=0.063 X0=(4 0.063 *) BaseFreq=50
New Linecode.3P_Code7 units=km nphases=3 R1=1.247 R0=(4 1.247 *) X1=0.2494 X0=(4 0.2494 *) BaseFreq=50
New Linecode.3P_OH_Code1 units=km nphases=3 R1=0.4428 R0=(4 0.4428 *) X1=0.3782 X0=(4 0.3782 *) BaseFreq=50
New Linecode.3P_OH_Code2 units=km nphases=3 R1=0.2614 R0=(4 0.2614 *) X1=0.3489 X0=(4 0.3489 *) BaseFreq=50
